Alpine_106pen/OutputDSS.dss
Clear

New Circuit.Alpine_106pen_Reduced bus1=SourceBus basekv=12 pu=1 MVAsc3=20000 MVAsc1=21000
New Line.0355_03552a Phases=3 bus1=0355.1.2.3 bus2=03552a.1.2.3 Units=km Length=0.057927 Rmatrix=[0.12456     0.03762     0.03762| 0.03762     0.12456     0.03762| 0.03762     0.03762     0.12456|] Xmatrix=[ 0.6121     0.23447     0.23447| 0.23447      0.6121     0.23447| 0.23447     0.23447      0.6121|] Cmatrix=[0  0  0| 0  0  0| 0  0  0|]
New Line.03552a_03553 Phases=3 bus1=03552a.1.2.3 bus2=03553.1.2.3 Units=km Length=0.04953 Rmatrix=[ 0.13353    0.033136    0.033136| 0.033136     0.13353    0.033136| 0.033136    0.033136     0.13353|] Xmatrix=[0.61516     0.23294     0.23294| 0.23294     0.61516     0.23294| 0.23294     0.23294     0.61516|] Cmatrix=[0  0  0| 0  0  0| 0  0  0|]
New Line.035510_035513 Phases=3 bus1=035510.1.2.3 bus2=035513.1.2.3 Units=km Length=0.21464 Rmatrix=[ 0.13353    0.033136    0.033136| 0.033136     0.13353    0.033136| 0.033136    0.033136     0.13353|] Xmatrix=[0.61516     0.23294     0.23294| 0.23294     0.61516     0.23294| 0.23294     0.23294     0.61516|] Cmatrix=[0  0  0| 0  0  0| 0  0  0|]
New Line.035510_03551001 Phases=1 bus1=035510.1 bus2=03551001.1 Units=km Length=0.023165 Rmatrix=0.52685 Xmatrix=0.46025 Cmatrix=0
New Line.035513_03551306 Phases=3 bus1=035513.1.2.3 bus2=03551306.1.2.3 Units=km Length=0.06855 Rmatrix=[1.0822       0.139       0.139|  0.139      1.0822       0.139|  0.139       0.139      1.0822|] Xmatrix=[0.83869     0.34853     0.34853| 0.34853     0.83869     0.34853| 0.34853     0.34853     0.83869|] Cmatrix=[0  0  0| 0  0  0| 0  0  0|]
New Line.035513_035516 Phases=3 bus1=035513.1.2.3 bus2=035516.1.2.3 Units=km Length=0.32802 Rmatrix=[  0.2161    0.056321    0.056321| 0.056321      0.2161    0.056321| 0.056321    0.056321      0.2161|] Xmatrix=[ 0.6425     0.24322     0.24322| 0.24322      0.6425     0.24322| 0.24322     0.24322      0.6425|] Cmatrix=[0  0  0| 0  0  0| 0  0  0|]
New Line.035513_03551301 Phases=2 bus1=035513.1.3 bus2=03551301.1.3 Units=km Length=0.071384 Rmatrix=[ 1.5713     0.13414| 0.13414      1.5713|] Xmatrix=[0.89016     0.38785| 0.38785     0.89016|] Cmatrix=[0  0| 0  0|]
New Line.03551306_03551392 Phases=2 bus1=03551306.1.3 bus2=03551392.1.3 Units=km Length=0.047214 Rmatrix=[ 1.6358     0.13845| 0.13845      1.6358|] Xmatrix=[0.90256     0.39469| 0.39469     0.90256|] Cmatrix=[0  0| 0  0|]
New Line.03551306_03551308 Phases=3 bus1=03551306.1.2.3 bus2=03551308.1.2.3 Units=km Length=0.19876 Rmatrix=[ 1.0675     0.13745     0.13745| 0.13745      1.0675     0.13745| 0.13745     0.13745      1.0675|] Xmatrix=[0.83522     0.34678     0.34678| 0.34678     0.83522     0.34678| 0.34678     0.34678     0.83522|] Cmatrix=[0  0  0| 0  0  0| 0  0  0|]
New Line.03551308_03551314 Phases=3 bus1=03551308.1.2.3 bus2=03551314.1.2.3 Units=km Length=0.13061 Rmatrix=[1.0822       0.139       0.139|  0.139      1.0822       0.139|  0.139       0.139      1.0822|] Xmatrix=[0.83869     0.34853     0.34853| 0.34853     0.83869     0.34853| 0.34853     0.34853     0.83869|] Cmatrix=[0  0  0| 0  0  0| 0  0  0|]
New Line.03551308_03551309 Phases=2 bus1=03551308.1.3 bus2=03551309.1.3 Units=km Length=0.054041 Rmatrix=[ 1.0282     0.13328| 0.13328      1.0282|] Xmatrix=[0.82591      0.3421|  0.3421     0.82591|] Cmatrix=[0  0| 0  0|]
New Line.03551314_03551318 Phases=3 bus1=03551314.1.2.3 bus2=03551318.1.2.3 Units=km Length=0.40057 Rmatrix=[0.91676     0.12664     0.12664| 0.12664     0.91676     0.12664| 0.12664     0.12664     0.91676|] Xmatrix=[0.81195     0.32915     0.32915| 0.32915     0.81195     0.32915| 0.32915     0.32915     0.81195|] Cmatrix=[0  0  0| 0  0  0| 0  0  0|]
New Line.03551314_03551367 Phases=2 bus1=03551314.2.3 bus2=03551367.2.3 Units=km Length=0.05968 Rmatrix=[ 1.6358     0.13845| 0.13845      1.6358|] Xmatrix=[0.90256     0.39469| 0.39469     0.90256|] Cmatrix=[0  0| 0  0|]
New Line.03551367_03551367a Phases=2 bus1=03551367.2.3 bus2=03551367a.2.3 Units=km Length=0.003048 Rmatrix=[0.12456     0.03762| 0.03762     0.12456|] Xmatrix=[ 0.6121     0.23447| 0.23447      0.6121|] Cmatrix=[0  0| 0  0|]
New Line.03551367a_03551369 Phases=2 bus1=03551367a.2.3 bus2=03551369.2.3 Units=km Length=0.22117 Rmatrix=[ 1.6358     0.13845| 0.13845      1.6358|] Xmatrix=[0.90256     0.39469| 0.39469     0.90256|] Cmatrix=[0  0| 0  0|]
New Line.03551318_03551319 Phases=3 bus1=03551318.1.2.3 bus2=03551319.1.2.3 Units=km Length=0.062179 Rmatrix=[1.0822       0.139       0.139|  0.139      1.0822       0.139|  0.139       0.139      1.0822|] Xmatrix=[0.83869     0.34853     0.34853| 0.34853     0.83869     0.34853| 0.34853     0.34853     0.83869|] Cmatrix=[0  0  0| 0  0  0| 0  0  0|]
New Line.03551319_03551320 Phases=3 bus1=03551319.1.2.3 bus2=03551320.1.2.3 Units=km Length=0.072664 Rmatrix=[1.0822       0.139       0.139|  0.139      1.0822       0.139|  0.139       0.139      1.0822|] Xmatrix=[0.83869     0.34853     0.34853| 0.34853     0.83869     0.34853| 0.34853     0.34853     0.83869|] Cmatrix=[0  0  0| 0  0  0| 0  0  0|]
New Line.03551320_03551321 Phases=3 bus1=03551320.1.2.3 bus2=03551321.1.2.3 Units=km Length=0.067696 Rmatrix=[1.0822       0.139       0.139|  0.139      1.0822       0.139|  0.139       0.139      1.0822|] Xmatrix=[0.83869     0.34853     0.34853| 0.34853     0.83869     0.34853| 0.34853     0.34853     0.83869|] Cmatrix=[0  0  0| 0  0  0| 0  0  0|]
New Line.03551321_03551323 Phases=3 bus1=03551321.1.2.3 bus2=03551323.1.2.3 Units=km Length=0.14289 Rmatrix=[1.0822       0.139       0.139|  0.139      1.0822       0.139|  0.139       0.139      1.0822|] Xmatrix=[0.83869     0.34853     0.34853| 0.34853     0.83869     0.34853| 0.34853     0.34853     0.83869|] Cmatrix=[0  0  0| 0  0  0| 0  0  0|]
New Line.03551323_03551327 Phases=2 bus1=03551323.1.2 bus2=03551327.1.2 Units=km Length=0.11659 Rmatrix=[1.3876      0.1387| 0.1387      1.3876|] Xmatrix=[0.87392     0.37399| 0.37399     0.87392|] Cmatrix=[0  0| 0  0|]
New Line.03551323_03551359 Phases=2 bus1=03551323.2.3 bus2=03551359.2.3 Units=km Length=0.36122 Rmatrix=[ 1.6358     0.13845| 0.13845      1.6358|] Xmatrix=[0.90256     0.39469| 0.39469     0.90256|] Cmatrix=[0  0| 0  0|]
New Line.03551327_03551336 Phases=2 bus1=03551327.1.2 bus2=03551336.1.2 Units=km Length=0.15908 Rmatrix=[ 1.1165     0.13797| 0.13797      1.1165|] Xmatrix=[0.86026     0.35255| 0.35255     0.86026|] Cmatrix=[0  0| 0  0|]
New Line.03551327_03551328 Phases=1 bus1=03551327.1 bus2=03551328.1 Units=km Length=0.003048 Rmatrix=0.086942 Xmatrix=0.37762 Cmatrix=0
New Line.03551336_03551337 Phases=2 bus1=03551336.1.2 bus2=03551337.1.2 Units=km Length=0.012984 Rmatrix=[ 1.1475     0.13703| 0.13703      1.1475|] Xmatrix=[0.87981     0.35619| 0.35619     0.87981|] Cmatrix=[0  0| 0  0|]
New Line.03551336_03551339 Phases=2 bus1=03551336.1.2 bus2=03551339.1.2 Units=km Length=0.08766 Rmatrix=[ 1.1475     0.13703| 0.13703      1.1475|] Xmatrix=[0.87981     0.35619| 0.35619     0.87981|] Cmatrix=[0  0| 0  0|]
New Line.03551337_03551338 Phases=2 bus1=03551337.1.2 bus2=03551338.1.2 Units=km Length=0.097536 Rmatrix=[0.69698      0.1193|  0.1193     0.69698|] Xmatrix=[0.77282     0.30302| 0.30302     0.77282|] Cmatrix=[0  0| 0  0|]
New Line.03551359_03551360 Phases=2 bus1=03551359.2.3 bus2=03551360.2.3 Units=km Length=0.10897 Rmatrix=[ 1.6358     0.13845| 0.13845      1.6358|] Xmatrix=[0.90256     0.39469| 0.39469     0.90256|] Cmatrix=[0  0| 0  0|]
New Line.03551369_03551370 Phases=2 bus1=03551369.2.3 bus2=03551370.2.3 Units=km Length=0.092172 Rmatrix=[ 1.6358     0.13845| 0.13845      1.6358|] Xmatrix=[0.90256     0.39469| 0.39469     0.90256|] Cmatrix=[0  0| 0  0|]
New Line.03551370_03551371 Phases=2 bus1=03551370.2.3 bus2=03551371.2.3 Units=km Length=0.05395 Rmatrix=[ 1.1475     0.13703| 0.13703      1.1475|] Xmatrix=[0.87981     0.35619| 0.35619     0.87981|] Cmatrix=[0  0| 0  0|]
New Line.03551370_03551390 Phases=2 bus1=03551370.2.3 bus2=03551390.2.3 Units=km Length=0.080863 Rmatrix=[ 1.1475     0.13703| 0.13703      1.1475|] Xmatrix=[0.87981     0.35619| 0.35619     0.87981|] Cmatrix=[0  0| 0  0|]
New Line.03551371_03551373 Phases=2 bus1=03551371.2.3 bus2=03551373.2.3 Units=km Length=0.11491 Rmatrix=[ 1.1475     0.13703| 0.13703      1.1475|] Xmatrix=[0.87981     0.35619| 0.35619     0.87981|] Cmatrix=[0  0| 0  0|]
New Line.03551371_03551389 Phases=2 bus1=03551371.2.3 bus2=03551389.2.3 Units=km Length=0.070378 Rmatrix=[ 1.1475     0.13703| 0.13703      1.1475|] Xmatrix=[0.87981     0.35619| 0.35619     0.87981|] Cmatrix=[0  0| 0  0|]
New Line.03551373_03551374 Phases=2 bus1=03551373.2.3 bus2=03551374.2.3 Units=km Length=0.046665 Rmatrix=[ 1.1475     0.13703| 0.13703      1.1475|] Xmatrix=[0.87981     0.35619| 0.35619     0.87981|] Cmatrix=[0  0| 0  0|]
New Line.03551374_03551376 Phases=2 bus1=03551374.2.3 bus2=03551376.2.3 Units=km Length=0.015301 Rmatrix=[ 1.1475     0.13703| 0.13703      1.1475|] Xmatrix=[0.87981     0.35619| 0.35619     0.87981|] Cmatrix=[0  0| 0  0|]
New Line.03551374_03551380 Phases=2 bus1=03551374.2.3 bus2=03551380.2.3 Units=km Length=0.15036 Rmatrix=[ 1.1475     0.13703| 0.13703      1.1475|] Xmatrix=[0.87981     0.35619| 0.35619     0.87981|] Cmatrix=[0  0| 0  0|]
New Line.03551380_03551383 Phases=2 bus1=03551380.2.3 bus2=03551383.2.3 Units=km Length=0.11366 Rmatrix=[ 1.1475     0.13703| 0.13703      1.1475|] Xmatrix=[0.87981     0.35619| 0.35619     0.87981|] Cmatrix=[0  0| 0  0|]
New Line.035516_035517 Phases=3 bus1=035516.1.2.3 bus2=035517.1.2.3 Units=km Length=0.024689 Rmatrix=[  0.2161    0.056321    0.056321| 0.056321      0.2161    0.056321| 0.056321    0.056321      0.2161|] Xmatrix=[ 0.6425     0.24322     0.24322| 0.24322      0.6425     0.24322| 0.24322     0.24322      0.6425|] Cmatrix=[0  0  0| 0  0  0| 0  0  0|]
New Line.035516_035516a Phases=2 bus1=035516.2.3 bus2=035516a.2.3 Units=km Length=0.003048 Rmatrix=[0.12456     0.03762| 0.03762     0.12456|] Xmatrix=[ 0.6121     0.23447| 0.23447      0.6121|] Cmatrix=[0  0| 0  0|]
New Line.035517_035518 Phases=3 bus1=035517.1.2.3 bus2=035518.1.2.3 Units=km Length=0.083454 Rmatrix=[  0.2161    0.056321    0.056321| 0.056321      0.2161    0.056321| 0.056321    0.056321      0.2161|] Xmatrix=[ 0.6425     0.24322     0.24322| 0.24322      0.6425     0.24322| 0.24322     0.24322      0.6425|] Cmatrix=[0  0  0| 0  0  0| 0  0  0|]
New Line.035517_03551703 Phases=2 bus1=035517.1.3 bus2=03551703.1.3 Units=km Length=0.13003 Rmatrix=[ 1.0598     0.13662| 0.13662      1.0598|] Xmatrix=[0.83338     0.34586| 0.34586     0.83338|] Cmatrix=[0  0| 0  0|]
New Line.035516a_03551601 Phases=2 bus1=035516a.2.3 bus2=03551601.2.3 Units=km Length=0.011674 Rmatrix=[ 1.1475     0.13703| 0.13703      1.1475|] Xmatrix=[0.87981     0.35619| 0.35619     0.87981|] Cmatrix=[0  0| 0  0|]
New Line.035518_035520 Phases=3 bus1=035518.1.2.3 bus2=035520.1.2.3 Units=km Length=0.12091 Rmatrix=[  0.2161    0.056321    0.056321| 0.056321      0.2161    0.056321| 0.056321    0.056321      0.2161|] Xmatrix=[ 0.6425     0.24322     0.24322| 0.24322      0.6425     0.24322| 0.24322     0.24322      0.6425|] Cmatrix=[0  0  0| 0  0  0| 0  0  0|]
New Line.035518_03551802 Phases=2 bus1=035518.2.3 bus2=03551802.2.3 Units=km Length=0.10159 Rmatrix=[1.0822       0.139|  0.139      1.0822|] Xmatrix=[0.83869     0.34853| 0.34853     0.83869|] Cmatrix=[0  0| 0  0|]
New Line.03551601_03551602 Phases=2 bus1=03551601.2.3 bus2=03551602.2.3 Units=km Length=0.052791 Rmatrix=[1.0822       0.139|  0.139      1.0822|] Xmatrix=[0.83869     0.34853| 0.34853     0.83869|] Cmatrix=[0  0| 0  0|]
New Line.03551601_03551603 Phases=2 bus1=03551601.2.3 bus2=03551603.2.3 Units=km Length=0.014874 Rmatrix=[ 1.1475     0.13703| 0.13703      1.1475|] Xmatrix=[0.87981     0.35619| 0.35619     0.87981|] Cmatrix=[0  0| 0  0|]
New Line.03551703_03551709a Phases=2 bus1=03551703.1.3 bus2=03551709a.1.3 Units=km Length=0.16112 Rmatrix=[ 1.0641     0.13708| 0.13708      1.0641|] Xmatrix=[ 0.8344     0.34637| 0.34637      0.8344|] Cmatrix=[0  0| 0  0|]
New Line.03551709a_03551710 Phases=2 bus1=03551709a.1.3 bus2=03551710.1.3 Units=km Length=0.12741 Rmatrix=[0.71544     0.12194| 0.12194     0.71544|] Xmatrix=[  0.778     0.30523| 0.30523       0.778|] Cmatrix=[0  0| 0  0|]
New Line.03551710_03551712 Phases=2 bus1=03551710.1.3 bus2=03551712.1.3 Units=km Length=0.16002 Rmatrix=[0.71544     0.12194| 0.12194     0.71544|] Xmatrix=[  0.778     0.30523| 0.30523       0.778|] Cmatrix=[0  0| 0  0|]
New Line.035520_035521 Phases=3 bus1=035520.1.2.3 bus2=035521.1.2.3 Units=km Length=0.16505 Rmatrix=[  0.2161    0.056321    0.056321| 0.056321      0.2161    0.056321| 0.056321    0.056321      0.2161|] Xmatrix=[ 0.6425     0.24322     0.24322| 0.24322      0.6425     0.24322| 0.24322     0.24322      0.6425|] Cmatrix=[0  0  0| 0  0  0| 0  0  0|]
New Line.035520_035520a Phases=2 bus1=035520.1.3 bus2=035520a.1.3 Units=km Length=0.003048 Rmatrix=[0.12456     0.03762| 0.03762     0.12456|] Xmatrix=[ 0.6121     0.23447| 0.23447      0.6121|] Cmatrix=[0  0| 0  0|]
New Line.035521_035525 Phases=3 bus1=035521.1.2.3 bus2=035525.1.2.3 Units=km Length=0.22866 Rmatrix=[ 0.24962    0.062654    0.062654| 0.062654     0.24962    0.062654| 0.062654    0.062654     0.24962|] Xmatrix=[ 0.6517     0.24656     0.24656| 0.24656      0.6517     0.24656| 0.24656     0.24656      0.6517|] Cmatrix=[0  0  0| 0  0  0| 0  0  0|]
New Line.035525_03552502 Phases=3 bus1=035525.1.2.3 bus2=03552502.1.2.3 Units=km Length=0.099791 Rmatrix=[ 0.25131    0.062992    0.062992| 0.062992     0.25131    0.062992| 0.062992    0.062992     0.25131|] Xmatrix=[0.65223     0.24672     0.24672| 0.24672     0.65223     0.24672| 0.24672     0.24672     0.65223|] Cmatrix=[0  0  0| 0  0  0| 0  0  0|]
New Line.035525_035527a Phases=3 bus1=035525.1.2.3 bus2=035527a.1.2.3 Units=km Length=0.043099 Rmatrix=[0.72234      0.1112      0.1112|  0.1112     0.72234      0.1112|  0.1112      0.1112     0.72234|] Xmatrix=[0.78048     0.30675     0.30675| 0.30675     0.78048     0.30675| 0.30675     0.30675     0.78048|] Cmatrix=[0  0  0| 0  0  0| 0  0  0|]
New Line.03552502_03552502a Phases=3 bus1=03552502.1.2.3 bus2=03552502a.1.2.3 Units=km Length=0.003048 Rmatrix=[0.12456     0.03762     0.03762| 0.03762     0.12456     0.03762| 0.03762     0.03762     0.12456|] Xmatrix=[ 0.6121     0.23447     0.23447| 0.23447      0.6121     0.23447| 0.23447     0.23447      0.6121|] Cmatrix=[0  0  0| 0  0  0| 0  0  0|]
New Line.03552502a_03552503 Phases=3 bus1=03552502a.1.2.3 bus2=03552503.1.2.3 Units=km Length=0.053005 Rmatrix=[ 0.25131    0.062992    0.062992| 0.062992     0.25131    0.062992| 0.062992    0.062992     0.25131|] Xmatrix=[0.65223     0.24672     0.24672| 0.24672     0.65223     0.24672| 0.24672     0.24672     0.65223|] Cmatrix=[0  0  0| 0  0  0| 0  0  0|]
New Line.03552503_03552510 Phases=3 bus1=03552503.1.2.3 bus2=03552510.1.2.3 Units=km Length=0.094701 Rmatrix=[ 0.25131    0.062992    0.062992| 0.062992     0.25131    0.062992| 0.062992    0.062992     0.25131|] Xmatrix=[0.65223     0.24672     0.24672| 0.24672     0.65223     0.24672| 0.24672     0.24672     0.65223|] Cmatrix=[0  0  0| 0  0  0| 0  0  0|]
New Line.03552503_03552504 Phases=3 bus1=03552503.1.2.3 bus2=03552504.1.2.3 Units=km Length=0.029566 Rmatrix=[0.59048     0.10599     0.10599| 0.10599     0.59048     0.10599| 0.10599     0.10599     0.59048|] Xmatrix=[0.76551     0.29166     0.29166| 0.29166     0.76551     0.29166| 0.29166     0.29166     0.76551|] Cmatrix=[0  0  0| 0  0  0| 0  0  0|]
New Line.03552510_03552514 Phases=3 bus1=03552510.1.2.3 bus2=03552514.1.2.3 Units=km Length=0.18535 Rmatrix=[ 0.25131    0.062992    0.062992| 0.062992     0.25131    0.062992| 0.062992    0.062992     0.25131|] Xmatrix=[0.65223     0.24672     0.24672| 0.24672     0.65223     0.24672| 0.24672     0.24672     0.65223|] Cmatrix=[0  0  0| 0  0  0| 0  0  0|]
New Line.03552510_03552510a Phases=3 bus1=03552510.1.2.3 bus2=03552510a.1.2.3 Units=km Length=0.003048 Rmatrix=[0.12456     0.03762     0.03762| 0.03762     0.12456     0.03762| 0.03762     0.03762     0.12456|] Xmatrix=[ 0.6121     0.23447     0.23447| 0.23447      0.6121     0.23447| 0.23447     0.23447      0.6121|] Cmatrix=[0  0  0| 0  0  0| 0  0  0|]
New Line.03552514_03552547 Phases=3 bus1=03552514.1.2.3 bus2=03552547.1.2.3 Units=km Length=0.182 Rmatrix=[ 0.25131    0.062992    0.062992| 0.062992     0.25131    0.062992| 0.062992    0.062992     0.25131|] Xmatrix=[0.65223     0.24672     0.24672| 0.24672     0.65223     0.24672| 0.24672     0.24672     0.65223|] Cmatrix=[0  0  0| 0  0  0| 0  0  0|]
New Line.03552514_03552515 Phases=3 bus1=03552514.1.2.3 bus2=03552515.1.2.3 Units=km Length=0.054864 Rmatrix=[0.61517     0.10962     0.10962| 0.10962     0.61517     0.10962| 0.10962     0.10962     0.61517|] Xmatrix=[0.77364     0.29469     0.29469| 0.29469     0.77364     0.29469| 0.29469     0.29469     0.77364|] Cmatrix=[0  0  0| 0  0  0| 0  0  0|]
New Line.03552515_03552518 Phases=2 bus1=03552515.1.2 bus2=03552518.1.2 Units=km Length=0.094488 Rmatrix=[1.0822       0.139|  0.139      1.0822|] Xmatrix=[0.83869     0.34853| 0.34853     0.83869|] Cmatrix=[0  0| 0  0|]
New Line.03552515_03552532 Phases=3 bus1=03552515.1.2.3 bus2=03552532.1.2.3 Units=km Length=0.067361 Rmatrix=[0.71544     0.12194     0.12194| 0.12194     0.71544     0.12194| 0.12194     0.12194     0.71544|] Xmatrix=[  0.778     0.30523     0.30523| 0.30523       0.778     0.30523| 0.30523     0.30523       0.778|] Cmatrix=[0  0  0| 0  0  0| 0  0  0|]
New Line.03552518_03552525 Phases=1 bus1=03552518.1 bus2=03552525.1 Units=km Length=0.15484 Rmatrix=0.87252 Xmatrix=0.61912 Cmatrix=0
New Line.03552518_03552521 Phases=1 bus1=03552518.2 bus2=03552521.2 Units=km Length=0.17008 Rmatrix=0.94324 Xmatrix=0.49016 Cmatrix=0
New Line.03552532_03552533 Phases=3 bus1=03552532.1.2.3 bus2=03552533.1.2.3 Units=km Length=0.13381 Rmatrix=[0.64403     0.11385     0.11385| 0.11385     0.64403     0.11385| 0.11385     0.11385     0.64403|] Xmatrix=[0.78314     0.29823     0.29823| 0.29823     0.78314     0.29823| 0.29823     0.29823     0.78314|] Cmatrix=[0  0  0| 0  0  0| 0  0  0|]
New Line.03552532_03552537a Phases=1 bus1=03552532.2 bus2=03552537a.2 Units=km Length=0.018898 Rmatrix=0.45869 Xmatrix=0.46761 Cmatrix=0
New Line.03552532_03552542 Phases=1 bus1=03552532.3 bus2=03552542.3 Units=km Length=0.064008 Rmatrix=0.50907 Xmatrix=0.4798 Cmatrix=0
New Line.03552533_03552534 Phases=1 bus1=03552533.1 bus2=03552534.1 Units=km Length=0.03871 Rmatrix=0.53018 Xmatrix=0.48491 Cmatrix=0
New Line.03552525_03552526 Phases=1 bus1=03552525.1 bus2=03552526.1 Units=km Length=0.078638 Rmatrix=0.53018 Xmatrix=0.48491 Cmatrix=0
New Line.03552525_03552530 Phases=1 bus1=03552525.1 bus2=03552530.1 Units=km Length=0.06157 Rmatrix=0.5935 Xmatrix=0.47277 Cmatrix=0
New Line.03552526_03552528 Phases=1 bus1=03552526.1 bus2=03552528.1 Units=km Length=0.15484 Rmatrix=0.72706 Xmatrix=0.47941 Cmatrix=0
New Line.03552530_03552531 Phases=1 bus1=03552530.1 bus2=03552531.1 Units=km Length=0.026822 Rmatrix=0.5935 Xmatrix=0.47277 Cmatrix=0
New Line.03552528_03552529 Phases=1 bus1=03552528.1 bus2=03552529.1 Units=km Length=0.13777 Rmatrix=0.5935 Xmatrix=0.47277 Cmatrix=0
New Line.03552534_03552534a Phases=1 bus1=03552534.1 bus2=03552534a.1 Units=km Length=0.003048 Rmatrix=0.086942 Xmatrix=0.37762 Cmatrix=0
New Line.03552537a_03552538 Phases=1 bus1=03552537a.2 bus2=03552538.2 Units=km Length=0.074371 Rmatrix=0.53018 Xmatrix=0.48491 Cmatrix=0
New Line.03552534a_03552535 Phases=1 bus1=03552534a.1 bus2=03552535.1 Units=km Length=0.029566 Rmatrix=0.53018 Xmatrix=0.48491 Cmatrix=0
New Line.03552547_03552553 Phases=3 bus1=03552547.1.2.3 bus2=03552553.1.2.3 Units=km Length=0.0851 Rmatrix=[ 0.25131    0.062992    0.062992| 0.062992     0.25131    0.062992| 0.062992    0.062992     0.25131|] Xmatrix=[0.65223     0.24672     0.24672| 0.24672     0.65223     0.24672| 0.24672     0.24672     0.65223|] Cmatrix=[0  0  0| 0  0  0| 0  0  0|]
New Line.03552547_03552550 Phases=1 bus1=03552547.3 bus2=03552550.3 Units=km Length=0.14173 Rmatrix=0.52065 Xmatrix=0.4826 Cmatrix=0
New Line.03552553_03552571 Phases=3 bus1=03552553.1.2.3 bus2=03552571.1.2.3 Units=km Length=0.059741 Rmatrix=[ 0.25131    0.062992    0.062992| 0.062992     0.25131    0.062992| 0.062992    0.062992     0.25131|] Xmatrix=[0.65223     0.24672     0.24672| 0.24672     0.65223     0.24672| 0.24672     0.24672     0.65223|] Cmatrix=[0  0  0| 0  0  0| 0  0  0|]
New Line.03552553_03552553a Phases=2 bus1=03552553.2.3 bus2=03552553a.2.3 Units=km Length=0.003048 Rmatrix=[0.12456     0.03762| 0.03762     0.12456|] Xmatrix=[ 0.6121     0.23447| 0.23447      0.6121|] Cmatrix=[0  0| 0  0|]
New Line.03552571_03552575 Phases=3 bus1=03552571.1.2.3 bus2=03552575.1.2.3 Units=km Length=0.17995 Rmatrix=[ 0.25131    0.062992    0.062992| 0.062992     0.25131    0.062992| 0.062992    0.062992     0.25131|] Xmatrix=[0.65223     0.24672     0.24672| 0.24672     0.65223     0.24672| 0.24672     0.24672     0.65223|] Cmatrix=[0  0  0| 0  0  0| 0  0  0|]
New Line.03552571_03552571a Phases=2 bus1=03552571.2.3 bus2=03552571a.2.3 Units=km Length=0.003048 Rmatrix=[0.12456     0.03762| 0.03762     0.12456|] Xmatrix=[ 0.6121     0.23447| 0.23447      0.6121|] Cmatrix=[0  0| 0  0|]
New Line.03552553a_03552555 Phases=2 bus1=03552553a.2.3 bus2=03552555.2.3 Units=km Length=0.13045 Rmatrix=[ 1.6358     0.13845| 0.13845      1.6358|] Xmatrix=[0.90256     0.39469| 0.39469     0.90256|] Cmatrix=[0  0| 0  0|]
New Line.03552555_03552563 Phases=2 bus1=03552555.2.3 bus2=03552563.2.3 Units=km Length=0.14204 Rmatrix=[ 1.6358     0.13845| 0.13845      1.6358|] Xmatrix=[0.90256     0.39469| 0.39469     0.90256|] Cmatrix=[0  0| 0  0|]
New Line.03552555_03552569 Phases=2 bus1=03552555.2.3 bus2=03552569.2.3 Units=km Length=0.025146 Rmatrix=[ 1.6358     0.13845| 0.13845      1.6358|] Xmatrix=[0.90256     0.39469| 0.39469     0.90256|] Cmatrix=[0  0| 0  0|]
New Line.03552555_03552559 Phases=1 bus1=03552555.2 bus2=03552559.2 Units=km Length=0.2603 Rmatrix=0.58757 Xmatrix=0.47166 Cmatrix=0
New Line.03552569_03552570 Phases=2 bus1=03552569.2.3 bus2=03552570.2.3 Units=km Length=0.003048 Rmatrix=[ 1.6358     0.13845| 0.13845      1.6358|] Xmatrix=[0.90256     0.39469| 0.39469     0.90256|] Cmatrix=[0  0| 0  0|]
New Line.03552563_03552565 Phases=2 bus1=03552563.2.3 bus2=03552565.2.3 Units=km Length=0.1371 Rmatrix=[ 1.6358     0.13845| 0.13845      1.6358|] Xmatrix=[0.90256     0.39469| 0.39469     0.90256|] Cmatrix=[0  0| 0  0|]
New Line.03552565_03552568 Phases=2 bus1=03552565.2.3 bus2=03552568.2.3 Units=km Length=0.19928 Rmatrix=[ 1.6358     0.13845| 0.13845      1.6358|] Xmatrix=[0.90256     0.39469| 0.39469     0.90256|] Cmatrix=[0  0| 0  0|]
New Line.03552575_03552576 Phases=3 bus1=03552575.1.2.3 bus2=03552576.1.2.3 Units=km Length=0.028164 Rmatrix=[ 0.25131    0.062992    0.062992| 0.062992     0.25131    0.062992| 0.062992    0.062992     0.25131|] Xmatrix=[0.65223     0.24672     0.24672| 0.24672     0.65223     0.24672| 0.24672     0.24672     0.65223|] Cmatrix=[0  0  0| 0  0  0| 0  0  0|]
New Line.03552576_03552577 Phases=3 bus1=03552576.1.2.3 bus2=03552577.1.2.3 Units=km Length=0.045415 Rmatrix=[ 0.25131    0.062992    0.062992| 0.062992     0.25131    0.062992| 0.062992    0.062992     0.25131|] Xmatrix=[0.65223     0.24672     0.24672| 0.24672     0.65223     0.24672| 0.24672     0.24672     0.65223|] Cmatrix=[0  0  0| 0  0  0| 0  0  0|]
New Line.03552576_03552631 Phases=2 bus1=03552576.1.2 bus2=03552631.1.2 Units=km Length=0.0082906 Rmatrix=[1.0822       0.139|  0.139      1.0822|] Xmatrix=[0.83869     0.34853| 0.34853     0.83869|] Cmatrix=[0  0| 0  0|]
New Line.03552577_03552579 Phases=3 bus1=03552577.1.2.3 bus2=03552579.1.2.3 Units=km Length=0.057425 Rmatrix=[ 0.25131    0.062992    0.062992| 0.062992     0.25131    0.062992| 0.062992    0.062992     0.25131|] Xmatrix=[0.65223     0.24672     0.24672| 0.24672     0.65223     0.24672| 0.24672     0.24672     0.65223|] Cmatrix=[0  0  0| 0  0  0| 0  0  0|]
New Line.03552631_03552631a Phases=2 bus1=03552631.1.2 bus2=03552631a.1.2 Units=km Length=0.003048 Rmatrix=[0.12456     0.03762| 0.03762     0.12456|] Xmatrix=[ 0.6121     0.23447| 0.23447      0.6121|] Cmatrix=[0  0| 0  0|]
New Line.03552631a_03552632 Phases=2 bus1=03552631a.1.2 bus2=03552632.1.2 Units=km Length=0.055077 Rmatrix=[ 1.6358     0.13845| 0.13845      1.6358|] Xmatrix=[0.90256     0.39469| 0.39469     0.90256|] Cmatrix=[0  0| 0  0|]
New Line.03552631a_03552639 Phases=2 bus1=03552631a.1.2 bus2=03552639.1.2 Units=km Length=0.06221 Rmatrix=[ 1.6358     0.13845| 0.13845      1.6358|] Xmatrix=[0.90256     0.39469| 0.39469     0.90256|] Cmatrix=[0  0| 0  0|]
New Line.03552579_03552584a Phases=3 bus1=03552579.1.2.3 bus2=03552584a.1.2.3 Units=km Length=0.22312 Rmatrix=[ 0.43249    0.083334    0.083334| 0.083334     0.43249    0.083334| 0.083334    0.083334     0.43249|] Xmatrix=[0.71336     0.27201     0.27201| 0.27201     0.71336     0.27201| 0.27201     0.27201     0.71336|] Cmatrix=[0  0  0| 0  0  0| 0  0  0|]
New Line.03552584a_03552585 Phases=3 bus1=03552584a.1.2.3 bus2=03552585.1.2.3 Units=km Length=0.012802 Rmatrix=[0.64403     0.11385     0.11385| 0.11385     0.64403     0.11385| 0.11385     0.11385     0.64403|] Xmatrix=[0.78314     0.29823     0.29823| 0.29823     0.78314     0.29823| 0.29823     0.29823     0.78314|] Cmatrix=[0  0  0| 0  0  0| 0  0  0|]
New Line.03552585_03552589 Phases=3 bus1=03552585.1.2.3 bus2=03552589.1.2.3 Units=km Length=0.17313 Rmatrix=[0.64403     0.11385     0.11385| 0.11385     0.64403     0.11385| 0.11385     0.11385     0.64403|] Xmatrix=[0.78314     0.29823     0.29823| 0.29823     0.78314     0.29823| 0.29823     0.29823     0.78314|] Cmatrix=[0  0  0| 0  0  0| 0  0  0|]
New Line.03552585_03552599 Phases=3 bus1=03552585.1.2.3 bus2=03552599.1.2.3 Units=km Length=0.14264 Rmatrix=[0.64403     0.11385     0.11385| 0.11385     0.64403     0.11385| 0.11385     0.11385     0.64403|] Xmatrix=[0.78314     0.29823     0.29823| 0.29823     0.78314     0.29823| 0.29823     0.29823     0.78314|] Cmatrix=[0  0  0| 0  0  0| 0  0  0|]
New Line.03552585_03552625 Phases=1 bus1=03552585.1 bus2=03552625.1 Units=km Length=0.13777 Rmatrix=0.5935 Xmatrix=0.47277 Cmatrix=0
New Line.03552599_03552602 Phases=3 bus1=03552599.1.2.3 bus2=03552602.1.2.3 Units=km Length=0.16892 Rmatrix=[0.83545     0.11746     0.11746| 0.11746     0.83545     0.11746| 0.11746     0.11746     0.83545|] Xmatrix=[0.80423     0.31661     0.31661| 0.31661     0.80423     0.31661| 0.31661     0.31661     0.80423|] Cmatrix=[0  0  0| 0  0  0| 0  0  0|]
New Line.03552599_03552603 Phases=3 bus1=03552599.1.2.3 bus2=03552603.1.2.3 Units=km Length=0.034442 Rmatrix=[0.64403     0.11385     0.11385| 0.11385     0.64403     0.11385| 0.11385     0.11385     0.64403|] Xmatrix=[0.78314     0.29823     0.29823| 0.29823     0.78314     0.29823| 0.29823     0.29823     0.78314|] Cmatrix=[0  0  0| 0  0  0| 0  0  0|]
New Line.03552599_03552604 Phases=3 bus1=03552599.1.2.3 bus2=03552604.1.2.3 Units=km Length=0.18806 Rmatrix=[0.64403     0.11385     0.11385| 0.11385     0.64403     0.11385| 0.11385     0.11385     0.64403|] Xmatrix=[0.78314     0.29823     0.29823| 0.29823     0.78314     0.29823| 0.29823     0.29823     0.78314|] Cmatrix=[0  0  0| 0  0  0| 0  0  0|]
New Line.03552589_03552594 Phases=3 bus1=03552589.1.2.3 bus2=03552594.1.2.3 Units=km Length=0.015545 Rmatrix=[0.64403     0.11385     0.11385| 0.11385     0.64403     0.11385| 0.11385     0.11385     0.64403|] Xmatrix=[0.78314     0.29823     0.29823| 0.29823     0.78314     0.29823| 0.29823     0.29823     0.78314|] Cmatrix=[0  0  0| 0  0  0| 0  0  0|]
New Line.03552589_03552595 Phases=1 bus1=03552589.3 bus2=03552595.3 Units=km Length=0.064618 Rmatrix=0.5935 Xmatrix=0.47277 Cmatrix=0
New Line.03552604_03552605 Phases=2 bus1=03552604.1.3 bus2=03552605.1.3 Units=km Length=0.032309 Rmatrix=[0.71544     0.12194| 0.12194     0.71544|] Xmatrix=[  0.778     0.30523| 0.30523       0.778|] Cmatrix=[0  0| 0  0|]
New Line.03552604_03552607 Phases=3 bus1=03552604.1.2.3 bus2=03552607.1.2.3 Units=km Length=0.039319 Rmatrix=[0.71544     0.12194     0.12194| 0.12194     0.71544     0.12194| 0.12194     0.12194     0.71544|] Xmatrix=[  0.778     0.30523     0.30523| 0.30523       0.778     0.30523| 0.30523     0.30523       0.778|] Cmatrix=[0  0  0| 0  0  0| 0  0  0|]
New Line.03552604_03552608 Phases=3 bus1=03552604.1.2.3 bus2=03552608.1.2.3 Units=km Length=0.27798 Rmatrix=[0.64403     0.11385     0.11385| 0.11385     0.64403     0.11385| 0.11385     0.11385     0.64403|] Xmatrix=[0.78314     0.29823     0.29823| 0.29823     0.78314     0.29823| 0.29823     0.29823     0.78314|] Cmatrix=[0  0  0| 0  0  0| 0  0  0|]
New Line.03552608_03552610 Phases=3 bus1=03552608.1.2.3 bus2=03552610.1.2.3 Units=km Length=0.4252 Rmatrix=[0.71544     0.12194     0.12194| 0.12194     0.71544     0.12194| 0.12194     0.12194     0.71544|] Xmatrix=[  0.778     0.30523     0.30523| 0.30523       0.778     0.30523| 0.30523     0.30523       0.778|] Cmatrix=[0  0  0| 0  0  0| 0  0  0|]
New Line.03552608_03552620 Phases=1 bus1=03552608.2 bus2=03552620.2 Units=km Length=0.26975 Rmatrix=0.5935 Xmatrix=0.47277 Cmatrix=0
New Line.035527a_035528 Phases=3 bus1=035527a.1.2.3 bus2=035528.1.2.3 Units=km Length=0.021976 Rmatrix=[1.0822       0.139       0.139|  0.139      1.0822       0.139|  0.139       0.139      1.0822|] Xmatrix=[0.83869     0.34853     0.34853| 0.34853     0.83869     0.34853| 0.34853     0.34853     0.83869|] Cmatrix=[0  0  0| 0  0  0| 0  0  0|]
New Line.03552610_03552614 Phases=1 bus1=03552610.2 bus2=03552614.2 Units=km Length=0.28012 Rmatrix=0.5935 Xmatrix=0.47277 Cmatrix=0
New Line.03552625_03552626 Phases=1 bus1=03552625.1 bus2=03552626.1 Units=km Length=0.014021 Rmatrix=0.53018 Xmatrix=0.48491 Cmatrix=0
New Line.03552625_03552628 Phases=1 bus1=03552625.1 bus2=03552628.1 Units=km Length=0.089002 Rmatrix=0.53018 Xmatrix=0.48491 Cmatrix=0
New Line.03552632_03552633 Phases=2 bus1=03552632.1.2 bus2=03552633.1.2 Units=km Length=0.035875 Rmatrix=[ 1.6358     0.13845| 0.13845      1.6358|] Xmatrix=[0.90256     0.39469| 0.39469     0.90256|] Cmatrix=[0  0| 0  0|]
New Line.03552639_03552641 Phases=2 bus1=03552639.1.2 bus2=03552641.1.2 Units=km Length=0.0381 Rmatrix=[ 1.6358     0.13845| 0.13845      1.6358|] Xmatrix=[0.90256     0.39469| 0.39469     0.90256|] Cmatrix=[0  0| 0  0|]
New Line.03552633_03552636 Phases=2 bus1=03552633.1.2 bus2=03552636.1.2 Units=km Length=0.28919 Rmatrix=[ 1.2467     0.13302| 0.13302      1.2467|] Xmatrix=[0.86274     0.35957| 0.35957     0.86274|] Cmatrix=[0  0| 0  0|]
New Line.03552641_03552644a Phases=2 bus1=03552641.1.2 bus2=03552644a.1.2 Units=km Length=0.19026 Rmatrix=[ 1.5874     0.13522| 0.13522      1.5874|] Xmatrix=[0.89325     0.38956| 0.38956     0.89325|] Cmatrix=[0  0| 0  0|]
New Line.03552636_03552637 Phases=2 bus1=03552636.1.2 bus2=03552637.1.2 Units=km Length=0.12253 Rmatrix=[0.71544     0.12194| 0.12194     0.71544|] Xmatrix=[  0.778     0.30523| 0.30523       0.778|] Cmatrix=[0  0| 0  0|]
New Line.03552644a_03552645 Phases=2 bus1=03552644a.1.2 bus2=03552645.1.2 Units=km Length=0.025603 Rmatrix=[0.71544     0.12194| 0.12194     0.71544|] Xmatrix=[  0.778     0.30523| 0.30523       0.778|] Cmatrix=[0  0| 0  0|]
New Line.035528_035529 Phases=3 bus1=035528.1.2.3 bus2=035529.1.2.3 Units=km Length=0.056175 Rmatrix=[1.0822       0.139       0.139|  0.139      1.0822       0.139|  0.139       0.139      1.0822|] Xmatrix=[0.83869     0.34853     0.34853| 0.34853     0.83869     0.34853| 0.34853     0.34853     0.83869|] Cmatrix=[0  0  0| 0  0  0| 0  0  0|]
New Line.035529_035532 Phases=3 bus1=035529.1.2.3 bus2=035532.1.2.3 Units=km Length=0.13984 Rmatrix=[1.0822       0.139       0.139|  0.139      1.0822       0.139|  0.139       0.139      1.0822|] Xmatrix=[0.83869     0.34853     0.34853| 0.34853     0.83869     0.34853| 0.34853     0.34853     0.83869|] Cmatrix=[0  0  0| 0  0  0| 0  0  0|]
New Line.035529_03552902 Phases=2 bus1=035529.2.3 bus2=03552902.2.3 Units=km Length=0.10973 Rmatrix=[ 1.1191     0.13427| 0.13427      1.1191|] Xmatrix=[0.87237     0.35281| 0.35281     0.87237|] Cmatrix=[0  0| 0  0|]
New Line.03553_03555 Phases=3 bus1=03553.1.2.3 bus2=03555.1.2.3 Units=km Length=0.092872 Rmatrix=[ 0.13353    0.033136    0.033136| 0.033136     0.13353    0.033136| 0.033136    0.033136     0.13353|] Xmatrix=[0.61516     0.23294     0.23294| 0.23294     0.61516     0.23294| 0.23294     0.23294     0.61516|] Cmatrix=[0  0  0| 0  0  0| 0  0  0|]
New Line.03555_03559 Phases=3 bus1=03555.1.2.3 bus2=03559.1.2.3 Units=km Length=0.2713 Rmatrix=[ 0.13353    0.033136    0.033136| 0.033136     0.13353    0.033136| 0.033136    0.033136     0.13353|] Xmatrix=[0.61516     0.23294     0.23294| 0.23294     0.61516     0.23294| 0.23294     0.23294     0.61516|] Cmatrix=[0  0  0| 0  0  0| 0  0  0|]
New Line.03555_0355501 Phases=2 bus1=03555.2.3 bus2=0355501.2.3 Units=km Length=0.034686 Rmatrix=[ 1.0576     0.12829| 0.12829      1.0576|] Xmatrix=[0.85629     0.34549| 0.34549     0.85629|] Cmatrix=[0  0| 0  0|]
New Line.035532_035533 Phases=3 bus1=035532.1.2.3 bus2=035533.1.2.3 Units=km Length=0.063825 Rmatrix=[1.0822       0.139       0.139|  0.139      1.0822       0.139|  0.139       0.139      1.0822|] Xmatrix=[0.83869     0.34853     0.34853| 0.34853     0.83869     0.34853| 0.34853     0.34853     0.83869|] Cmatrix=[0  0  0| 0  0  0| 0  0  0|]
New Line.035532_03553203 Phases=2 bus1=035532.2.3 bus2=03553203.2.3 Units=km Length=0.17209 Rmatrix=[ 1.1294     0.13527| 0.13527      1.1294|] Xmatrix=[0.87507     0.35403| 0.35403     0.87507|] Cmatrix=[0  0| 0  0|]
New Line.035533_03553346 Phases=2 bus1=035533.1.2 bus2=03553346.1.2 Units=km Length=0.030785 Rmatrix=[ 1.1475     0.13703| 0.13703      1.1475|] Xmatrix=[0.87981     0.35619| 0.35619     0.87981|] Cmatrix=[0  0| 0  0|]
New Line.035533_035534 Phases=3 bus1=035533.1.2.3 bus2=035534.1.2.3 Units=km Length=0.071994 Rmatrix=[1.0822       0.139       0.139|  0.139      1.0822       0.139|  0.139       0.139      1.0822|] Xmatrix=[0.83869     0.34853     0.34853| 0.34853     0.83869     0.34853| 0.34853     0.34853     0.83869|] Cmatrix=[0  0  0| 0  0  0| 0  0  0|]
New Line.035533_03553303 Phases=2 bus1=035533.1.2 bus2=03553303.1.2 Units=km Length=0.26133 Rmatrix=[ 1.6182     0.13727| 0.13727      1.6182|] Xmatrix=[0.89917     0.39282| 0.39282     0.89917|] Cmatrix=[0  0| 0  0|]
New Line.035534_035536 Phases=3 bus1=035534.1.2.3 bus2=035536.1.2.3 Units=km Length=0.094183 Rmatrix=[1.0822       0.139       0.139|  0.139      1.0822       0.139|  0.139       0.139      1.0822|] Xmatrix=[0.83869     0.34853     0.34853| 0.34853     0.83869     0.34853| 0.34853     0.34853     0.83869|] Cmatrix=[0  0  0| 0  0  0| 0  0  0|]
New Line.03553203_03553203a Phases=2 bus1=03553203.2.3 bus2=03553203a.2.3 Units=km Length=0.003048 Rmatrix=[0.12456     0.03762| 0.03762     0.12456|] Xmatrix=[ 0.6121     0.23447| 0.23447      0.6121|] Cmatrix=[0  0| 0  0|]
New Line.03553203a_03553204 Phases=2 bus1=03553203a.2.3 bus2=03553204.2.3 Units=km Length=0.031699 Rmatrix=[0.71544     0.12194| 0.12194     0.71544|] Xmatrix=[  0.778     0.30523| 0.30523       0.778|] Cmatrix=[0  0| 0  0|]
New Line.03553303_03553305 Phases=2 bus1=03553303.1.2 bus2=03553305.1.2 Units=km Length=0.10119 Rmatrix=[ 1.6358     0.13845| 0.13845      1.6358|] Xmatrix=[0.90256     0.39469| 0.39469     0.90256|] Cmatrix=[0  0| 0  0|]
New Line.03553303_03553307 Phases=2 bus1=03553303.1.2 bus2=03553307.1.2 Units=km Length=0.03368 Rmatrix=[ 1.6358     0.13845| 0.13845      1.6358|] Xmatrix=[0.90256     0.39469| 0.39469     0.90256|] Cmatrix=[0  0| 0  0|]
New Line.03553307_03553313 Phases=2 bus1=03553307.1.2 bus2=03553313.1.2 Units=km Length=0.21991 Rmatrix=[ 1.6358     0.13845| 0.13845      1.6358|] Xmatrix=[0.90256     0.39469| 0.39469     0.90256|] Cmatrix=[0  0| 0  0|]
New Line.03553313_03553314 Phases=2 bus1=03553313.1.2 bus2=03553314.1.2 Units=km Length=0.10497 Rmatrix=[ 1.6358     0.13845| 0.13845      1.6358|] Xmatrix=[0.90256     0.39469| 0.39469     0.90256|] Cmatrix=[0  0| 0  0|]
New Line.03553314_03553315 Phases=2 bus1=03553314.1.2 bus2=03553315.1.2 Units=km Length=0.081961 Rmatrix=[ 1.6358     0.13845| 0.13845      1.6358|] Xmatrix=[0.90256     0.39469| 0.39469     0.90256|] Cmatrix=[0  0| 0  0|]
New Line.03553314_03553326 Phases=2 bus1=03553314.1.2 bus2=03553326.1.2 Units=km Length=0.246 Rmatrix=[ 1.6358     0.13845| 0.13845      1.6358|] Xmatrix=[0.90256     0.39469| 0.39469     0.90256|] Cmatrix=[0  0| 0  0|]
New Line.03553314_03553344 Phases=2 bus1=03553314.1.2 bus2=03553344.1.2 Units=km Length=0.55312 Rmatrix=[ 1.6358     0.13845| 0.13845      1.6358|] Xmatrix=[0.90256     0.39469| 0.39469     0.90256|] Cmatrix=[0  0| 0  0|]
New Line.03553315_03553318 Phases=2 bus1=03553315.1.2 bus2=03553318.1.2 Units=km Length=0.2293 Rmatrix=[ 1.6358     0.13845| 0.13845      1.6358|] Xmatrix=[0.90256     0.39469| 0.39469     0.90256|] Cmatrix=[0  0| 0  0|]
New Line.03553326_03553333 Phases=2 bus1=03553326.1.2 bus2=03553333.1.2 Units=km Length=0.31504 Rmatrix=[ 1.6358     0.13845| 0.13845      1.6358|] Xmatrix=[0.90256     0.39469| 0.39469     0.90256|] Cmatrix=[0  0| 0  0|]
New Line.035536_035537 Phases=3 bus1=035536.1.2.3 bus2=035537.1.2.3 Units=km Length=0.048006 Rmatrix=[1.0822       0.139       0.139|  0.139      1.0822       0.139|  0.139       0.139      1.0822|] Xmatrix=[0.83869     0.34853     0.34853| 0.34853     0.83869     0.34853| 0.34853     0.34853     0.83869|] Cmatrix=[0  0  0| 0  0  0| 0  0  0|]
New Line.035536_03553602 Phases=2 bus1=035536.1.3 bus2=03553602.1.3 Units=km Length=0.081382 Rmatrix=[ 1.1092     0.13331| 0.13331      1.1092|] Xmatrix=[0.86978     0.35163| 0.35163     0.86978|] Cmatrix=[0  0| 0  0|]
New Line.035537_035538 Phases=3 bus1=035537.1.2.3 bus2=035538.1.2.3 Units=km Length=0.056418 Rmatrix=[1.0822       0.139       0.139|  0.139      1.0822       0.139|  0.139       0.139      1.0822|] Xmatrix=[0.83869     0.34853     0.34853| 0.34853     0.83869     0.34853| 0.34853     0.34853     0.83869|] Cmatrix=[0  0  0| 0  0  0| 0  0  0|]
New Line.035538_035539 Phases=3 bus1=035538.1.2.3 bus2=035539.1.2.3 Units=km Length=0.044653 Rmatrix=[1.0822       0.139       0.139|  0.139      1.0822       0.139|  0.139       0.139      1.0822|] Xmatrix=[0.83869     0.34853     0.34853| 0.34853     0.83869     0.34853| 0.34853     0.34853     0.83869|] Cmatrix=[0  0  0| 0  0  0| 0  0  0|]
New Line.035538_03553807 Phases=2 bus1=035538.2.3 bus2=03553807.2.3 Units=km Length=0.38073 Rmatrix=[ 1.1393     0.13623| 0.13623      1.1393|] Xmatrix=[0.87767     0.35522| 0.35522     0.87767|] Cmatrix=[0  0| 0  0|]
New Line.035539_035540 Phases=3 bus1=035539.1.2.3 bus2=035540.1.2.3 Units=km Length=0.05331 Rmatrix=[1.0822       0.139       0.139|  0.139      1.0822       0.139|  0.139       0.139      1.0822|] Xmatrix=[0.83869     0.34853     0.34853| 0.34853     0.83869     0.34853| 0.34853     0.34853     0.83869|] Cmatrix=[0  0  0| 0  0  0| 0  0  0|]
New Line.035540_035541 Phases=3 bus1=035540.1.2.3 bus2=035541.1.2.3 Units=km Length=0.049713 Rmatrix=[1.0822       0.139       0.139|  0.139      1.0822       0.139|  0.139       0.139      1.0822|] Xmatrix=[0.83869     0.34853     0.34853| 0.34853     0.83869     0.34853| 0.34853     0.34853     0.83869|] Cmatrix=[0  0  0| 0  0  0| 0  0  0|]
New Line.035540_035540a Phases=2 bus1=035540.1.2 bus2=035540a.1.2 Units=km Length=0.003048 Rmatrix=[0.12456     0.03762| 0.03762     0.12456|] Xmatrix=[ 0.6121     0.23447| 0.23447      0.6121|] Cmatrix=[0  0| 0  0|]
New Line.035541_035542 Phases=3 bus1=035541.1.2.3 bus2=035542.1.2.3 Units=km Length=0.044287 Rmatrix=[1.0822       0.139       0.139|  0.139      1.0822       0.139|  0.139       0.139      1.0822|] Xmatrix=[0.83869     0.34853     0.34853| 0.34853     0.83869     0.34853| 0.34853     0.34853     0.83869|] Cmatrix=[0  0  0| 0  0  0| 0  0  0|]
New Line.035540a_03554006 Phases=2 bus1=035540a.1.2 bus2=03554006.1.2 Units=km Length=0.24728 Rmatrix=[ 1.1475     0.13703| 0.13703      1.1475|] Xmatrix=[0.87981     0.35619| 0.35619     0.87981|] Cmatrix=[0  0| 0  0|]
New Line.035542_035543 Phases=3 bus1=035542.1.2.3 bus2=035543.1.2.3 Units=km Length=0.041178 Rmatrix=[1.0822       0.139       0.139|  0.139      1.0822       0.139|  0.139       0.139      1.0822|] Xmatrix=[0.83869     0.34853     0.34853| 0.34853     0.83869     0.34853| 0.34853     0.34853     0.83869|] Cmatrix=[0  0  0| 0  0  0| 0  0  0|]
New Line.035542_03554202 Phases=2 bus1=035542.1.3 bus2=03554202.1.3 Units=km Length=0.19175 Rmatrix=[ 1.1312     0.13545| 0.13545      1.1312|] Xmatrix=[0.87555     0.35426| 0.35426     0.87555|] Cmatrix=[0  0| 0  0|]
New Line.03554006_03554007 Phases=2 bus1=03554006.1.2 bus2=03554007.1.2 Units=km Length=0.066446 Rmatrix=[ 1.1475     0.13703| 0.13703      1.1475|] Xmatrix=[0.87981     0.35619| 0.35619     0.87981|] Cmatrix=[0  0| 0  0|]
New Line.03554007_03554008 Phases=2 bus1=03554007.1.2 bus2=03554008.1.2 Units=km Length=0.085374 Rmatrix=[ 1.1475     0.13703| 0.13703      1.1475|] Xmatrix=[0.87981     0.35619| 0.35619     0.87981|] Cmatrix=[0  0| 0  0|]
New Line.035543_03554301 Phases=3 bus1=035543.1.2.3 bus2=03554301.1.2.3 Units=km Length=0.042855 Rmatrix=[1.0822       0.139       0.139|  0.139      1.0822       0.139|  0.139       0.139      1.0822|] Xmatrix=[0.83869     0.34853     0.34853| 0.34853     0.83869     0.34853| 0.34853     0.34853     0.83869|] Cmatrix=[0  0  0| 0  0  0| 0  0  0|]
New Line.035543_035544 Phases=3 bus1=035543.1.2.3 bus2=035544.1.2.3 Units=km Length=0.089611 Rmatrix=[0.12456     0.03762     0.03762| 0.03762     0.12456     0.03762| 0.03762     0.03762     0.12456|] Xmatrix=[ 0.6121     0.23447     0.23447| 0.23447      0.6121     0.23447| 0.23447     0.23447      0.6121|] Cmatrix=[0  0  0| 0  0  0| 0  0  0|]
New Line.03554301_03554301a Phases=2 bus1=03554301.2.3 bus2=03554301a.2.3 Units=km Length=0.003048 Rmatrix=[0.12456     0.03762| 0.03762     0.12456|] Xmatrix=[ 0.6121     0.23447| 0.23447      0.6121|] Cmatrix=[0  0| 0  0|]
New Line.03554301a_03554302 Phases=2 bus1=03554301a.2.3 bus2=03554302.2.3 Units=km Length=0.040843 Rmatrix=[ 1.1475     0.13703| 0.13703      1.1475|] Xmatrix=[0.87981     0.35619| 0.35619     0.87981|] Cmatrix=[0  0| 0  0|]
New Line.035544_03554401a Phases=3 bus1=035544.1.2.3 bus2=03554401a.1.2.3 Units=km Length=0.020422 Rmatrix=[ 0.5665     0.10247     0.10247| 0.10247      0.5665     0.10247| 0.10247     0.10247      0.5665|] Xmatrix=[0.75761     0.28871     0.28871| 0.28871     0.75761     0.28871| 0.28871     0.28871     0.75761|] Cmatrix=[0  0  0| 0  0  0| 0  0  0|]
New Line.035544_035545 Phases=3 bus1=035544.1.2.3 bus2=035545.1.2.3 Units=km Length=0.23957 Rmatrix=[0.12456     0.03762     0.03762| 0.03762     0.12456     0.03762| 0.03762     0.03762     0.12456|] Xmatrix=[ 0.6121     0.23447     0.23447| 0.23447      0.6121     0.23447| 0.23447     0.23447      0.6121|] Cmatrix=[0  0  0| 0  0  0| 0  0  0|]
New Line.035545_035546 Phases=3 bus1=035545.1.2.3 bus2=035546.1.2.3 Units=km Length=0.057607 Rmatrix=[0.12456     0.03762     0.03762| 0.03762     0.12456     0.03762| 0.03762     0.03762     0.12456|] Xmatrix=[ 0.6121     0.23447     0.23447| 0.23447      0.6121     0.23447| 0.23447     0.23447      0.6121|] Cmatrix=[0  0  0| 0  0  0| 0  0  0|]
New Line.03554401a_03554406 Phases=3 bus1=03554401a.1.2.3 bus2=03554406.1.2.3 Units=km Length=0.25694 Rmatrix=[0.71061     0.12139     0.12139| 0.12139     0.71061     0.12139| 0.12139     0.12139     0.71061|] Xmatrix=[0.77835     0.30476     0.30476| 0.30476     0.77835     0.30476| 0.30476     0.30476     0.77835|] Cmatrix=[0  0  0| 0  0  0| 0  0  0|]
New Line.035546_035546a Phases=3 bus1=035546.1.2.3 bus2=035546a.1.2.3 Units=km Length=0.003048 Rmatrix=[0.12456     0.03762     0.03762| 0.03762     0.12456     0.03762| 0.03762     0.03762     0.12456|] Xmatrix=[ 0.6121     0.23447     0.23447| 0.23447      0.6121     0.23447| 0.23447     0.23447      0.6121|] Cmatrix=[0  0  0| 0  0  0| 0  0  0|]
New Line.03554406_03554411a Phases=2 bus1=03554406.1.3 bus2=03554411a.1.3 Units=km Length=0.11162 Rmatrix=[  1.219     0.12695| 0.12695       1.219|] Xmatrix=[0.84146     0.35345| 0.35345     0.84146|] Cmatrix=[0  0| 0  0|]
New Line.03554406_03554415 Phases=2 bus1=03554406.1.3 bus2=03554415.1.3 Units=km Length=0.095098 Rmatrix=[ 1.0829     0.12617| 0.12617      1.0829|] Xmatrix=[0.82498     0.34052| 0.34052     0.82498|] Cmatrix=[0  0| 0  0|]
New Line.03554406_03554407 Phases=1 bus1=03554406.3 bus2=03554407.3 Units=km Length=0.01463 Rmatrix=0.5935 Xmatrix=0.47277 Cmatrix=0
New Line.03554407_03554408 Phases=1 bus1=03554407.3 bus2=03554408.3 Units=km Length=0.082906 Rmatrix=0.5935 Xmatrix=0.47277 Cmatrix=0
New Line.03554408_03554409 Phases=1 bus1=03554408.3 bus2=03554409.3 Units=km Length=0.003048 Rmatrix=0.5935 Xmatrix=0.47277 Cmatrix=0
New Line.03554415_03554416 Phases=2 bus1=03554415.1.3 bus2=03554416.1.3 Units=km Length=0.082906 Rmatrix=[ 1.6358     0.13845| 0.13845      1.6358|] Xmatrix=[0.90256     0.39469| 0.39469     0.90256|] Cmatrix=[0  0| 0  0|]
New Line.035546a_035548 Phases=3 bus1=035546a.1.2.3 bus2=035548.1.2.3 Units=km Length=0.10491 Rmatrix=[1.0822       0.139       0.139|  0.139      1.0822       0.139|  0.139       0.139      1.0822|] Xmatrix=[0.83869     0.34853     0.34853| 0.34853     0.83869     0.34853| 0.34853     0.34853     0.83869|] Cmatrix=[0  0  0| 0  0  0| 0  0  0|]
New Line.035548_035549 Phases=3 bus1=035548.1.2.3 bus2=035549.1.2.3 Units=km Length=0.078029 Rmatrix=[1.0822       0.139       0.139|  0.139      1.0822       0.139|  0.139       0.139      1.0822|] Xmatrix=[0.83869     0.34853     0.34853| 0.34853     0.83869     0.34853| 0.34853     0.34853     0.83869|] Cmatrix=[0  0  0| 0  0  0| 0  0  0|]
New Line.035548_03554802 Phases=2 bus1=035548.1.2 bus2=03554802.1.2 Units=km Length=0.15045 Rmatrix=[ 1.6052     0.13641| 0.13641      1.6052|] Xmatrix=[0.89668     0.39144| 0.39144     0.89668|] Cmatrix=[0  0| 0  0|]
New Line.035549_035551 Phases=3 bus1=035549.1.2.3 bus2=035551.1.2.3 Units=km Length=0.087934 Rmatrix=[1.0822       0.139       0.139|  0.139      1.0822       0.139|  0.139       0.139      1.0822|] Xmatrix=[0.83869     0.34853     0.34853| 0.34853     0.83869     0.34853| 0.34853     0.34853     0.83869|] Cmatrix=[0  0  0| 0  0  0| 0  0  0|]
New Line.035549_03554901 Phases=3 bus1=035549.1.2.3 bus2=03554901.1.2.3 Units=km Length=0.043282 Rmatrix=[0.67383       0.116       0.116|   0.116     0.67383       0.116|   0.116       0.116     0.67383|] Xmatrix=[0.76632     0.30025     0.30025| 0.30025     0.76632     0.30025| 0.30025     0.30025     0.76632|] Cmatrix=[0  0  0| 0  0  0| 0  0  0|]
New Line.03554802_03554804 Phases=2 bus1=03554802.1.2 bus2=03554804.1.2 Units=km Length=0.13408 Rmatrix=[1.0822       0.139|  0.139      1.0822|] Xmatrix=[0.83869     0.34853| 0.34853     0.83869|] Cmatrix=[0  0| 0  0|]
New Line.03554804_03554806 Phases=2 bus1=03554804.1.2 bus2=03554806.1.2 Units=km Length=0.088301 Rmatrix=[0.83804     0.12622| 0.12622     0.83804|] Xmatrix=[0.80689     0.31969| 0.31969     0.80689|] Cmatrix=[0  0| 0  0|]
New Line.03554806_03554806a Phases=2 bus1=03554806.1.2 bus2=03554806a.1.2 Units=km Length=0.003048 Rmatrix=[0.12456     0.03762| 0.03762     0.12456|] Xmatrix=[ 0.6121     0.23447| 0.23447      0.6121|] Cmatrix=[0  0| 0  0|]
New Line.03554806a_03554807 Phases=2 bus1=03554806a.1.2 bus2=03554807.1.2 Units=km Length=0.044196 Rmatrix=[0.71544     0.12194| 0.12194     0.71544|] Xmatrix=[  0.778     0.30523| 0.30523       0.778|] Cmatrix=[0  0| 0  0|]
New Line.03554807_03554809 Phases=2 bus1=03554807.1.2 bus2=03554809.1.2 Units=km Length=0.040538 Rmatrix=[0.71544     0.12194| 0.12194     0.71544|] Xmatrix=[  0.778     0.30523| 0.30523       0.778|] Cmatrix=[0  0| 0  0|]
New Line.03554809_03554810 Phases=2 bus1=03554809.1.2 bus2=03554810.1.2 Units=km Length=0.056388 Rmatrix=[0.71544     0.12194| 0.12194     0.71544|] Xmatrix=[  0.778     0.30523| 0.30523       0.778|] Cmatrix=[0  0| 0  0|]
New Line.035551_035556 Phases=3 bus1=035551.1.2.3 bus2=035556.1.2.3 Units=km Length=0.16633 Rmatrix=[1.0822       0.139       0.139|  0.139      1.0822       0.139|  0.139       0.139      1.0822|] Xmatrix=[0.83869     0.34853     0.34853| 0.34853     0.83869     0.34853| 0.34853     0.34853     0.83869|] Cmatrix=[0  0  0| 0  0  0| 0  0  0|]
New Line.03554901_03554902 Phases=2 bus1=03554901.1.2 bus2=03554902.1.2 Units=km Length=0.073762 Rmatrix=[0.71544     0.12194| 0.12194     0.71544|] Xmatrix=[  0.778     0.30523| 0.30523       0.778|] Cmatrix=[0  0| 0  0|]
New Line.03554901_03554903 Phases=3 bus1=03554901.1.2.3 bus2=03554903.1.2.3 Units=km Length=0.24994 Rmatrix=[0.71544     0.12194     0.12194| 0.12194     0.71544     0.12194| 0.12194     0.12194     0.71544|] Xmatrix=[  0.778     0.30523     0.30523| 0.30523       0.778     0.30523| 0.30523     0.30523       0.778|] Cmatrix=[0  0  0| 0  0  0| 0  0  0|]
New Line.03554903_03554913 Phases=1 bus1=03554903.1 bus2=03554913.1 Units=km Length=0.16947 Rmatrix=0.5935 Xmatrix=0.47277 Cmatrix=0
New Line.03554903_03554905 Phases=1 bus1=03554903.2 bus2=03554905.2 Units=km Length=0.097536 Rmatrix=0.5935 Xmatrix=0.47277 Cmatrix=0
New Line.03554903_03554908 Phases=1 bus1=03554903.3 bus2=03554908.3 Units=km Length=0.21976 Rmatrix=0.5935 Xmatrix=0.47277 Cmatrix=0
New Line.03554913_03554914 Phases=1 bus1=03554913.1 bus2=03554914.1 Units=km Length=0.12588 Rmatrix=0.5935 Xmatrix=0.47277 Cmatrix=0
New Line.03554914_03554915 Phases=1 bus1=03554914.1 bus2=03554915.1 Units=km Length=0.003048 Rmatrix=0.5935 Xmatrix=0.47277 Cmatrix=0
New Line.0355501_0355502 Phases=2 bus1=0355501.2.3 bus2=0355502.2.3 Units=km Length=0.066538 Rmatrix=[ 1.1475     0.13703| 0.13703      1.1475|] Xmatrix=[0.87981     0.35619| 0.35619     0.87981|] Cmatrix=[0  0| 0  0|]
New Line.035556_03555604 Phases=3 bus1=035556.1.2.3 bus2=03555604.1.2.3 Units=km Length=0.28346 Rmatrix=[0.72813      0.1217      0.1217|  0.1217     0.72813      0.1217|  0.1217      0.1217     0.72813|] Xmatrix=[ 0.7807     0.30672     0.30672| 0.30672      0.7807     0.30672| 0.30672     0.30672      0.7807|] Cmatrix=[0  0  0| 0  0  0| 0  0  0|]
New Line.035556_035557 Phases=3 bus1=035556.1.2.3 bus2=035557.1.2.3 Units=km Length=0.052761 Rmatrix=[ 0.25131    0.062992    0.062992| 0.062992     0.25131    0.062992| 0.062992    0.062992     0.25131|] Xmatrix=[0.65223     0.24672     0.24672| 0.24672     0.65223     0.24672| 0.24672     0.24672     0.65223|] Cmatrix=[0  0  0| 0  0  0| 0  0  0|]
New Line.035557_03555702 Phases=2 bus1=035557.1.3 bus2=03555702.1.3 Units=km Length=0.23143 Rmatrix=[ 1.6159     0.13712| 0.13712      1.6159|] Xmatrix=[0.89873     0.39258| 0.39258     0.89873|] Cmatrix=[0  0| 0  0|]
New Line.03559_035510 Phases=3 bus1=03559.1.2.3 bus2=035510.1.2.3 Units=km Length=0.092537 Rmatrix=[ 0.13353    0.033136    0.033136| 0.033136     0.13353    0.033136| 0.033136    0.033136     0.13353|] Xmatrix=[0.61516     0.23294     0.23294| 0.23294     0.61516     0.23294| 0.23294     0.23294     0.61516|] Cmatrix=[0  0  0| 0  0  0| 0  0  0|]
New Line.03559_0355901 Phases=2 bus1=03559.1.2 bus2=0355901.1.2 Units=km Length=0.064587 Rmatrix=[ 1.6358     0.13845| 0.13845      1.6358|] Xmatrix=[0.90256     0.39469| 0.39469     0.90256|] Cmatrix=[0  0| 0  0|]
New Line.03559_0355950 Phases=2 bus1=03559.2.3 bus2=0355950.2.3 Units=km Length=0.1261 Rmatrix=[ 1.0591     0.13655| 0.13655      1.0591|] Xmatrix=[0.83321     0.34577| 0.34577     0.83321|] Cmatrix=[0  0| 0  0|]
...
New Transformer.355_1686B Buses=[03551328.1 03551328A.1] Conns=[wye wye] %Noloadloss=0 Phases=1 Windings=2 %imag=0 kVAs=[20000  20000] kVs=[12  12]
New Transformer.ALPINE Buses=[SourceBus 0355] Conns=[wye wye] %Noloadloss=0 Phases=3 Windings=2 %imag=0 kVAs=[20000  20000] kVs=[12  12] sub=y
New Capacitor.355_1385CW Phases=3 Bus1=03552577 Kvar=1350 Kv=12 Conn=wye states=1 Numsteps=20
New Capcontrol.capctrl_355_1385CW Element=line.03552576_03552577 Capacitor=355_1385CW Type=voltage CTRatio=100 OFFsetting=125 ONsetting=119 PTPhase=3 PTRatio=57.75 Vmax=123 Vmin=119 VoltOverride=TRUE
New XYCurve.myeff npts=4 Xarray=[0   25   75  100] Yarray=[1  1  1  1]
New XYCurve.mypvst npts=4 Xarray=[0.1         0.2         0.4           1] Yarray=[1  1  1  1]
New XYCurve.CurveFor_InvForPV_0355.1_from_03551.1 npts=6 Xarray=[0.5        0.95        0.98        1.02        1.05         1.5] Yarray=[1  1  0  0 -1 -1]
New XYCurve.CurveFor_InvForPV_03552A.1_from_03551.1 npts=6 Xarray=[0.5        0.95        0.98        1.02        1.05         1.5] Yarray=[1  1  0  0 -1 -1]
New XYCurve.CurveFor_InvForPV_0355.2_from_03551.2 npts=6 Xarray=[0.5        0.95        0.98        1.02        1.05         1.5] Yarray=[1  1  0  0 -1 -1]
New XYCurve.CurveFor_InvForPV_03552A.2_from_03551.2 npts=6 Xarray=[0.5        0.95        0.98        1.02        1.05         1.5] Yarray=[1  1  0  0 -1 -1]
New XYCurve.CurveFor_InvForPV_0355.3_from_03551.3 npts=6 Xarray=[0.5        0.95        0.98        1.02        1.05         1.5] Yarray=[1  1  0  0 -1 -1]
New XYCurve.CurveFor_InvForPV_03552A.3_from_03551.3 npts=6 Xarray=[0.5        0.95        0.98        1.02        1.05         1.5] Yarray=[1  1  0  0 -1 -1]
New XYCurve.CurveFor_InvForPV_0355.1_from_03552.1 npts=6 Xarray=[0.5        0.95        0.98        1.02        1.05         1.5] Yarray=[1  1  0  0 -1 -1]
New XYCurve.CurveFor_InvForPV_03552A.1_from_03552.1 npts=6 Xarray=[0.5        0.95        0.98        1.02        1.05         1.5] Yarray=[1  1  0  0 -1 -1]
New XYCurve.CurveFor_InvForPV_0355.2_from_03552.2 npts=6 Xarray=[0.5        0.95        0.98        1.02        1.05         1.5] Yarray=[1  1  0  0 -1 -1]
New XYCurve.CurveFor_InvForPV_03552A.2_from_03552.2 npts=6 Xarray=[0.5        0.95        0.98        1.02        1.05         1.5] Yarray=[1  1  0  0 -1 -1]
New XYCurve.CurveFor_InvForPV_0355.3_from_03552.3 npts=6 Xarray=[0.5        0.95        0.98        1.02        1.05         1.5] Yarray=[1  1  0  0 -1 -1]
New XYCurve.CurveFor_InvForPV_03552A.3_from_03552.3 npts=6 Xarray=[0.5        0.95        0.98        1.02        1.05         1.5] Yarray=[1  1  0  0 -1 -1]
New XYCurve.CurveFor_InvForPV_03552A.1_from_03552A.1 npts=6 Xarray=[0.5        0.95        0.98        1.02        1.05         1.5] Yarray=[1  1  0  0 -1 -1]
New XYCurve.CurveFor_InvForPV_03552A.2_from_03552A.2 npts=6 Xarray=[0.5        0.95        0.98        1.02        1.05         1.5] Yarray=[1  1  0  0 -1 -1]
New XYCurve.CurveFor_InvForPV_03552A.3_from_03552A.3 npts=6 Xarray=[0.5        0.95        0.98        1.02        1.05         1.5] Yarray=[1  1  0  0 -1 -1]
New XYCurve.CurveFor_InvForPV_035510.1_from_035511.1 npts=6 Xarray=[0.5        0.95        0.98        1.02        1.05         1.5] Yarray=[1  1  0  0 -1 -1]
New XYCurve.CurveFor_InvForPV_035513.1_from_035511.1 npts=6 Xarray=[0.5        0.95        0.98        1.02        1.05         1.5] Yarray=[1  1  0  0 -1 -1]
New XYCurve.CurveFor_InvForPV_035510.1_from_035510A.1 npts=6 Xarray=[0.5        0.95        0.98        1.02        1.05         1.5] Yarray=[1  1  0  0 -1 -1]
New XYCurve.CurveFor_InvForPV_03551001.1_from_035510A.1 npts=6 Xarray=[0.5        0.95        0.98        1.02        1.05         1.5] Yarray=[1  1  0  0 -1 -1]
New XYCurve.CurveFor_InvForPV_035510.1_from_035512.1 npts=6 Xarray=[0.5        0.95        0.98        1.02        1.05         1.5] Yarray=[1  1  0  0 -1 -1]
New XYCurve.CurveFor_InvForPV_035513.1_from_035512.1 npts=6 Xarray=[0.5        0.95        0.98        1.02        1.05         1.5] Yarray=[1  1  0  0 -1 -1]
New XYCurve.CurveFor_InvForPV_035510.2_from_035512.2 npts=6 Xarray=[0.5        0.95        0.98        1.02        1.05         1.5] Yarray=[1  1  0  0 -1 -1]
New XYCurve.CurveFor_InvForPV_035513.2_from_035512.2 npts=6 Xarray=[0.5        0.95        0.98        1.02        1.05         1.5] Yarray=[1  1  0  0 -1 -1]
New XYCurve.CurveFor_InvForPV_035510.3_from_035512.3 npts=6 Xarray=[0.5        0.95        0.98        1.02        1.05         1.5] Yarray=[1  1  0  0 -1 -1]
New XYCurve.CurveFor_InvForPV_035513.3_from_035512.3 npts=6 Xarray=[0.5        0.95        0.98        1.02        1.05         1.5] Yarray=[1  1  0  0 -1 -1]
New XYCurve.CurveFor_InvForPV_035510.1_from_03551201.1 npts=6 Xarray=[0.5        0.95        0.98        1.02        1.05         1.5] Yarray=[1  1  0  0 -1 -1]
New XYCurve.CurveFor_InvForPV_035513.1_from_03551201.1 npts=6 Xarray=[0.5        0.95        0.98        1.02        1.05         1.5] Yarray=[1  1  0  0 -1 -1]
New XYCurve.CurveFor_InvForPV_035510.3_from_03551201.3 npts=6 Xarray=[0.5        0.95        0.98        1.02        1.05         1.5] Yarray=[1  1  0  0 -1 -1]
New XYCurve.CurveFor_InvForPV_035513.3_from_03551201.3 npts=6 Xarray=[0.5        0.95        0.98        1.02        1.05         1.5] Yarray=[1  1  0  0 -1 -1]
New XYCurve.CurveFor_InvForPV_03551306.1_from_03551306.1 npts=6 Xarray=[0.5        0.95        0.98        1.02        1.05         1.5] Yarray=[1  1  0  0 -1 -1]
New XYCurve.CurveFor_InvForPV_03551306.2_from_03551306.2 npts=6 Xarray=[0.5        0.95        0.98        1.02        1.05         1.5] Yarray=[1  1  0  0 -1 -1]
New XYCurve.CurveFor_InvForPV_03551306.3_from_03551306.3 npts=6 Xarray=[0.5        0.95        0.98        1.02        1.05         1.5] Yarray=[1  1  0  0 -1 -1]
New XYCurve.CurveFor_InvForPV_035513.1_from_035514.1 npts=6 Xarray=[0.5        0.95        0.98        1.02        1.05         1.5] Yarray=[1  1  0  0 -1 -1]
New XYCurve.CurveFor_InvForPV_035516.1_from_035514.1 npts=6 Xarray=[0.5        0.95        0.98        1.02        1.05         1.5] Yarray=[1  1  0  0 -1 -1]
New XYCurve.CurveFor_InvForPV_035513.2_from_035514.2 npts=6 Xarray=[0.5        0.95        0.98        1.02        1.05         1.5] Yarray=[1  1  0  0 -1 -1]
New XYCurve.CurveFor_InvForPV_035516.2_from_035514.2 npts=6 Xarray=[0.5        0.95        0.98        1.02        1.05         1.5] Yarray=[1  1  0  0 -1 -1]
New XYCurve.CurveFor_InvForPV_035513.3_from_035514.3 npts=6 Xarray=[0.5        0.95        0.98        1.02        1.05         1.5] Yarray=[1  1  0  0 -1 -1]
New XYCurve.CurveFor_InvForPV_035516.3_from_035514.3 npts=6 Xarray=[0.5        0.95        0.98        1.02        1.05         1.5] Yarray=[1  1  0  0 -1 -1]
New XYCurve.CurveFor_InvForPV_035513.1_from_035513A.1 npts=6 Xarray=[0.5        0.95        0.98        1.02        1.05         1.5] Yarray=[1  1  0  0 -1 -1]
New XYCurve.CurveFor_InvForPV_03551301.1_from_035513A.1 npts=6 Xarray=[0.5        0.95        0.98        1.02        1.05         1.5] Yarray=[1  1  0  0 -1 -1]
New XYCurve.CurveFor_InvForPV_035513.3_from_035513A.3 npts=6 Xarray=[0.5        0.95        0.98        1.02        1.05         1.5] Yarray=[1  1  0  0 -1 -1]
New XYCurve.CurveFor_InvForPV_03551301.3_from_035513A.3 npts=6 Xarray=[0.5        0.95        0.98        1.02        1.05         1.5] Yarray=[1  1  0  0 -1 -1]
New XYCurve.CurveFor_InvForPV_03551306.1_from_03551306A.1 npts=6 Xarray=[0.5        0.95        0.98        1.02        1.05         1.5] Yarray=[1  1  0  0 -1 -1]
New XYCurve.CurveFor_InvForPV_03551308.1_from_03551306A.1 npts=6 Xarray=[0.5        0.95        0.98        1.02        1.05         1.5] Yarray=[1  1  0  0 -1 -1]
New XYCurve.CurveFor_InvForPV_03551306.2_from_03551306A.2 npts=6 Xarray=[0.5        0.95        0.98        1.02        1.05         1.5] Yarray=[1  1  0  0 -1 -1]
New XYCurve.CurveFor_InvForPV_03551308.2_from_03551306A.2 npts=6 Xarray=[0.5        0.95        0.98        1.02        1.05         1.5] Yarray=[1  1  0  0 -1 -1]
New XYCurve.CurveFor_InvForPV_03551306.3_from_03551306A.3 npts=6 Xarray=[0.5        0.95        0.98        1.02        1.05         1.5] Yarray=[1  1  0  0 -1 -1]
...